# generated using pymatgen
data_Zr3H30(C11O4)4
_symmetry_space_group_name_H-M   'P 1'
_cell_length_a   39.89685800
_cell_length_b   39.90069600
_cell_length_c   16.49452200
_cell_angle_alpha   89.99000500
_cell_angle_beta   90.01326000
_cell_angle_gamma   119.99974800
_symmetry_Int_Tables_number   1
_chemical_formula_structural   Zr3H30(C11O4)4
_chemical_formula_sum   'Zr18 H180 C264 O96'
_cell_volume   22740.00849928
_cell_formula_units_Z   6
loop_
 _symmetry_equiv_pos_site_id
 _symmetry_equiv_pos_as_xyz
  1  'x, y, z'
loop_
 _atom_site_type_symbol
 _atom_site_label
 _atom_site_symmetry_multiplicity
 _atom_site_fract_x
 _atom_site_fract_y
 _atom_site_fract_z
 _atom_site_occupancy
  Zr  Zr1  1  0.53575800  0.07156200  0.00004100  1.0
  Zr  Zr2  1  0.54603900  0.99919100  0.89662900  1.0
  Zr  Zr3  1  0.54298500  0.00022500  0.11221800  1.0
  Zr  Zr4  1  0.45318500  0.99913100  0.10349500  1.0
  Zr  Zr5  1  0.46391200  0.92761100  0.00014100  1.0
  Zr  Zr6  1  0.45724700  0.00009100  0.88794400  1.0
  Zr  Zr7  1  0.07160600  0.53567100  0.99948600  1.0
  Zr  Zr8  1  0.99904300  0.45288200  0.89668300  1.0
  Zr  Zr9  1  0.00044000  0.45723000  0.11220300  1.0
  Zr  Zr10  1  0.99935700  0.54592700  0.10343500  1.0
  Zr  Zr11  1  0.92764900  0.46362700  0.00059400  1.0
  Zr  Zr12  1  1.00000000  0.54260400  0.88782900  1.0
  Zr  Zr13  1  0.46399000  0.53563000  0.00056800  1.0
  Zr  Zr14  1  0.45372900  0.45279900  0.10325200  1.0
  Zr  Zr15  1  0.45666100  0.45718500  0.88773300  1.0
  Zr  Zr16  1  0.54644500  0.54586600  0.89643700  1.0
  Zr  Zr17  1  0.53584100  0.46353400  0.99920300  1.0
  Zr  Zr18  1  0.54252700  0.54250600  0.11204600  1.0
  H  H1  1  0.46214700  0.83003100  0.88189400  1.0
  H  H2  1  0.54249900  0.16950600  0.87106100  1.0
  H  H3  1  0.36788600  0.82933500  0.88045300  1.0
  H  H4  1  0.62658800  0.16955400  0.87315500  1.0
  H  H5  1  0.56035200  0.91436300  0.74746400  1.0
  H  H6  1  0.44253200  0.08543600  0.74063000  1.0
  H  H7  1  0.35522800  0.91439500  0.74589400  1.0
  H  H8  1  0.64379100  0.08612500  0.74350600  1.0
  H  H9  1  0.55867200  0.86199200  0.66194300  1.0
  H  H10  1  0.44193700  0.13820500  0.66044200  1.0
  H  H11  1  0.30379900  0.86233000  0.66114300  1.0
  H  H12  1  0.69626000  0.13910900  0.66203700  1.0
  H  H13  1  0.45980400  0.77730500  0.79611600  1.0
  H  H14  1  0.54233900  0.22266900  0.79096900  1.0
  H  H15  1  0.31676200  0.77690600  0.79536900  1.0
  H  H16  1  0.67899700  0.22292600  0.79168800  1.0
  H  H17  1  0.54291200  0.16950500  0.12697300  1.0
  H  H18  1  0.46230900  0.82965500  0.11915100  1.0
  H  H19  1  0.62695300  0.16960300  0.12896900  1.0
  H  H20  1  0.36779300  0.82992300  0.11774900  1.0
  H  H21  1  0.44217500  0.08610300  0.25639800  1.0
  H  H22  1  0.55949900  0.91477000  0.25490000  1.0
  H  H23  1  0.64311000  0.08559400  0.25898800  1.0
  H  H24  1  0.35413200  0.91429200  0.25253300  1.0
  H  H25  1  0.44265300  0.13909000  0.33776200  1.0
  H  H26  1  0.55899300  0.86265300  0.33930400  1.0
  H  H27  1  0.69643700  0.13838700  0.33921300  1.0
  H  H28  1  0.30340700  0.86191600  0.33801600  1.0
  H  H29  1  0.54383800  0.22288800  0.20832300  1.0
  H  H30  1  0.46111800  0.77718600  0.20390300  1.0
  H  H31  1  0.68023900  0.22278500  0.20908700  1.0
  H  H32  1  0.31734300  0.77719300  0.20343000  1.0
  H  H33  1  0.45661200  0.05601500  0.99714700  1.0
  H  H34  1  0.47298100  0.94360700  0.82672400  1.0
  H  H35  1  0.59300600  0.97322000  0.09868200  1.0
  H  H36  1  0.60057800  0.99890300  0.01643000  1.0
  H  H37  1  0.37915300  0.97910100  0.09770200  1.0
  H  H38  1  0.49359100  0.00067400  0.24450400  1.0
  H  H39  1  0.55053600  0.02033700  0.26696800  1.0
  H  H40  1  0.47226700  0.02626900  0.25673100  1.0
  H  H41  1  0.59945600  0.05617100  0.00292800  1.0
  H  H42  1  0.47079800  0.94365300  0.17348200  1.0
  H  H43  1  0.60009500  0.97925400  0.90236900  1.0
  H  H44  1  0.39829400  0.99868500  0.98364400  1.0
  H  H45  1  0.38023600  0.97291300  0.90146300  1.0
  H  H46  1  0.55398800  0.02631000  0.74335500  1.0
  H  H47  1  0.46968200  0.02015800  0.73321300  1.0
  H  H48  1  0.50708800  0.00061500  0.75561000  1.0
  H  H49  1  0.82970800  0.36750100  0.88319700  1.0
  H  H50  1  0.16930500  0.62626300  0.87022300  1.0
  H  H51  1  0.82907900  0.46147900  0.88083200  1.0
  H  H52  1  0.16931600  0.54283200  0.87279500  1.0
  H  H53  1  0.91404600  0.35391000  0.74810800  1.0
  H  H54  1  0.08557400  0.64283700  0.74012000  1.0
  H  H55  1  0.91460800  0.55882500  0.74617400  1.0
  H  H56  1  0.08629700  0.44194700  0.74320400  1.0
  H  H57  1  0.86165800  0.30333200  0.66240200  1.0
  H  H58  1  0.13853600  0.69625200  0.66038200  1.0
  H  H59  1  0.86274700  0.55858300  0.66131700  1.0
  H  H60  1  0.13946300  0.44278600  0.66185200  1.0
  H  H61  1  0.77695900  0.31719900  0.79728700  1.0
  H  H62  1  0.22265300  0.67959300  0.79051600  1.0
  H  H63  1  0.77684400  0.46057600  0.79564300  1.0
  H  H64  1  0.22285900  0.54417600  0.79134200  1.0
  H  H65  1  0.16994600  0.62682900  0.12654200  1.0
  H  H66  1  0.82989800  0.36760500  0.11991600  1.0
  H  H67  1  0.16966200  0.54371100  0.12878600  1.0
  H  H68  1  0.82995800  0.46248000  0.11856000  1.0
  H  H69  1  0.08626600  0.64380100  0.25572800  1.0
  H  H70  1  0.91495500  0.35523700  0.25521300  1.0
  H  H71  1  0.08655900  0.44243800  0.25719000  1.0
  H  H72  1  0.91494600  0.56001200  0.25366900  1.0
  H  H73  1  0.13909900  0.69626700  0.33747900  1.0
  H  H74  1  0.86281400  0.30367400  0.33967500  1.0
  H  H75  1  0.13977000  0.44258700  0.33724300  1.0
  H  H76  1  0.86283900  0.55889000  0.33919600  1.0
  H  H77  1  0.22318000  0.67925100  0.20825600  1.0
  H  H78  1  0.77740900  0.31636000  0.20466800  1.0
  H  H79  1  0.22323000  0.54438300  0.20897400  1.0
  H  H80  1  0.77748000  0.46078100  0.20421300  1.0
  H  H81  1  0.05612200  0.59926100  0.99657900  1.0
  H  H82  1  0.94337700  0.47034900  0.82703200  1.0
  H  H83  1  0.97336900  0.38017700  0.09903800  1.0
  H  H84  1  0.99891000  0.39817900  0.01657100  1.0
  H  H85  1  0.97923100  0.59983500  0.09765600  1.0
  H  H86  1  0.00117200  0.50722500  0.24446700  1.0
  H  H87  1  0.02089900  0.46999100  0.26675600  1.0
  H  H88  1  0.02678700  0.55415900  0.25648700  1.0
  H  H89  1  0.05618100  0.45656200  0.00258500  1.0
  H  H90  1  0.94399100  0.47294700  0.17384400  1.0
  H  H91  1  0.97903700  0.37888400  0.90270700  1.0
  H  H92  1  0.99875500  0.60025200  0.98351200  1.0
  H  H93  1  0.97288900  0.59249700  0.90148400  1.0
  H  H94  1  0.02598400  0.47188200  0.74331200  1.0
  H  H95  1  0.01985900  0.55005200  0.73299900  1.0
  H  H96  1  0.00032200  0.49312600  0.75561200  1.0
  H  H97  1  0.53766700  0.36743000  0.11665100  1.0
  H  H98  1  0.45734800  0.62661100  0.12946600  1.0
  H  H99  1  0.63227000  0.46141500  0.11874600  1.0
  H  H100  1  0.37340000  0.54272300  0.12731400  1.0
  H  H101  1  0.43982300  0.35391400  0.25197700  1.0
  H  H102  1  0.55733100  0.64263900  0.26006800  1.0
  H  H103  1  0.64403700  0.55867900  0.25360800  1.0
  H  H104  1  0.35547200  0.44177200  0.25672200  1.0
  H  H105  1  0.44169900  0.30340000  0.33779100  1.0
  H  H106  1  0.55794500  0.69610400  0.33985700  1.0
  H  H107  1  0.69563800  0.55840500  0.33847700  1.0
  H  H108  1  0.30317000  0.44262100  0.33817900  1.0
  H  H109  1  0.54017900  0.31718400  0.20268500  1.0
  H  H110  1  0.45754000  0.68004800  0.20912600  1.0
  H  H111  1  0.68359400  0.46049200  0.20391400  1.0
  H  H112  1  0.32121800  0.54406900  0.20881800  1.0
  H  H113  1  0.45687600  0.62689100  0.87356200  1.0
  H  H114  1  0.53757700  0.36757600  0.87995200  1.0
  H  H115  1  0.37397000  0.54371000  0.87150500  1.0
  H  H116  1  0.63253800  0.46255200  0.88135400  1.0
  H  H117  1  0.55745100  0.64376700  0.74416600  1.0
  H  H118  1  0.44012500  0.35511700  0.74461100  1.0
  H  H119  1  0.35583400  0.44253400  0.74278700  1.0
  H  H120  1  0.64491500  0.55999200  0.74615500  1.0
  H  H121  1  0.55709300  0.69623400  0.66243200  1.0
  H  H122  1  0.44070100  0.30352200  0.66029500  1.0
  H  H123  1  0.30280500  0.44275200  0.66273200  1.0
  H  H124  1  0.69591500  0.55893200  0.66058700  1.0
  H  H125  1  0.45608800  0.67933700  0.79187500  1.0
  H  H126  1  0.53883700  0.31631500  0.79531600  1.0
  H  H127  1  0.32112600  0.54446800  0.79125500  1.0
  H  H128  1  0.68331300  0.46089400  0.79562400  1.0
  H  H129  1  0.54304700  0.59919100  0.00335500  1.0
  H  H130  1  0.52685900  0.47022700  0.17280000  1.0
  H  H131  1  0.40667300  0.38013300  0.90087500  1.0
  H  H132  1  0.39913900  0.39812000  0.98336300  1.0
  H  H133  1  0.62048000  0.59978000  0.90217100  1.0
  H  H134  1  0.50587800  0.50717300  0.75544000  1.0
  H  H135  1  0.44890900  0.46994300  0.73320200  1.0
  H  H136  1  0.52720500  0.55410400  0.74342200  1.0
  H  H137  1  0.40027800  0.45651800  0.99741700  1.0
  H  H138  1  0.52879100  0.47287700  0.82595000  1.0
  H  H139  1  0.39969800  0.37879800  0.09723000  1.0
  H  H140  1  0.60139700  0.60018900  0.01632200  1.0
  H  H141  1  0.61953500  0.59243500  0.09830500  1.0
  H  H142  1  0.44584700  0.47180300  0.25666600  1.0
  H  H143  1  0.53018500  0.54989600  0.26694200  1.0
  H  H144  1  0.49275700  0.49301800  0.24427500  1.0
  H  H145  1  0.83598300  0.50191200  0.57416100  1.0
  H  H146  1  0.49322400  0.24623200  0.21969800  1.0
  H  H147  1  0.33404700  0.83630400  0.57347900  1.0
  H  H148  1  0.24742200  0.49445600  0.22040600  1.0
  H  H149  1  0.49716100  0.33377500  0.57312100  1.0
  H  H150  1  0.75421600  0.24548800  0.22116700  1.0
  H  H151  1  0.16520800  0.50085200  0.57358700  1.0
  H  H152  1  0.50882200  0.75396700  0.22092900  1.0
  H  H153  1  0.66420100  0.16574800  0.57436500  1.0
  H  H154  1  0.75468100  0.50916000  0.22037600  1.0
  H  H155  1  0.49835500  0.66421000  0.57469700  1.0
  H  H156  1  0.24628000  0.75325000  0.21984400  1.0
  H  H157  1  0.50139500  0.16567200  0.42549500  1.0
  H  H158  1  0.75444900  0.50932100  0.77936400  1.0
  H  H159  1  0.33553800  0.50077000  0.42647100  1.0
  H  H160  1  0.24566200  0.75360900  0.77897100  1.0
  H  H161  1  0.83665600  0.33383400  0.42701800  1.0
  H  H162  1  0.49108500  0.24530100  0.77883600  1.0
  H  H163  1  0.50269300  0.83649100  0.42628000  1.0
  H  H164  1  0.24706400  0.49463500  0.77968700  1.0
  H  H165  1  0.66574600  0.50182400  0.42561800  1.0
  H  H166  1  0.75288900  0.24621300  0.78029500  1.0
  H  H167  1  0.16578100  0.66423300  0.42528200  1.0
  H  H168  1  0.50691700  0.75328500  0.78007800  1.0
  H  H169  1  0.16532000  0.50080900  0.42557900  1.0
  H  H170  1  0.66456600  0.16552700  0.42625500  1.0
  H  H171  1  0.49891100  0.66442400  0.42659800  1.0
  H  H172  1  0.83608000  0.50194200  0.42619500  1.0
  H  H173  1  0.33417700  0.83622600  0.42561200  1.0
  H  H174  1  0.49785300  0.33408900  0.42528500  1.0
  H  H175  1  0.50229200  0.83635000  0.57413000  1.0
  H  H176  1  0.66574200  0.50196700  0.57358300  1.0
  H  H177  1  0.16556800  0.66438000  0.57338500  1.0
  H  H178  1  0.50081500  0.16541000  0.57358900  1.0
  H  H179  1  0.33545600  0.50087500  0.57447800  1.0
  H  H180  1  0.83623900  0.33409000  0.57485000  1.0
  C  C1  1  0.48321800  0.83655100  0.83373100  1.0
  C  C2  1  0.52064700  0.16312100  0.82471100  1.0
  C  C3  1  0.35342800  0.83610000  0.83248200  1.0
  C  C4  1  0.64210700  0.16336200  0.82660900  1.0
  C  C5  1  0.51137600  0.87527200  0.81983900  1.0
  C  C6  1  0.49287900  0.12437000  0.80980000  1.0
  C  C7  1  0.36459100  0.87495500  0.81829800  1.0
  C  C8  1  0.63177500  0.12473700  0.81232600  1.0
  C  C9  1  0.53851200  0.88419700  0.75766900  1.0
  C  C10  1  0.46446000  0.11559600  0.75057000  1.0
  C  C11  1  0.34642200  0.88413000  0.75642400  1.0
  C  C12  1  0.65145600  0.11616900  0.75283400  1.0
  C  C13  1  0.53722200  0.85492700  0.70961700  1.0
  C  C14  1  0.46428100  0.14508200  0.70598500  1.0
  C  C15  1  0.31803600  0.85501600  0.70872600  1.0
  C  C16  1  0.68063600  0.14576500  0.70758600  1.0
  C  C17  1  0.50883100  0.81601200  0.72257500  1.0
  C  C18  1  0.49243000  0.18401700  0.71954600  1.0
  C  C19  1  0.30702500  0.81598100  0.72173100  1.0
  C  C20  1  0.69085600  0.18458000  0.72071600  1.0
  C  C21  1  0.48210200  0.80734900  0.78590100  1.0
  C  C22  1  0.52030800  0.19256800  0.78026500  1.0
  C  C23  1  0.32492400  0.80705200  0.78500300  1.0
  C  C24  1  0.67137500  0.19292100  0.78140300  1.0
  C  C25  1  0.52117800  0.16332300  0.17346200  1.0
  C  C26  1  0.48343900  0.83641700  0.16732100  1.0
  C  C27  1  0.64246500  0.16323400  0.17524700  1.0
  C  C28  1  0.35326700  0.83644900  0.16595000  1.0
  C  C29  1  0.49286400  0.12470100  0.18772200  1.0
  C  C30  1  0.51092900  0.87529000  0.18197800  1.0
  C  C31  1  0.63155700  0.12449100  0.19004600  1.0
  C  C32  1  0.36392900  0.87518400  0.18002400  1.0
  C  C33  1  0.46457400  0.11614500  0.24710600  1.0
  C  C34  1  0.53818400  0.88448700  0.24405400  1.0
  C  C35  1  0.65127700  0.11574300  0.24914300  1.0
  C  C36  1  0.34574600  0.88411700  0.24223800  1.0
  C  C37  1  0.46496900  0.14574100  0.29230100  1.0
  C  C38  1  0.53752700  0.85534400  0.29154000  1.0
  C  C39  1  0.68091700  0.14524100  0.29375500  1.0
  C  C40  1  0.31775000  0.85484600  0.29026300  1.0
  C  C41  1  0.49358500  0.18455100  0.27920200  1.0
  C  C42  1  0.50966400  0.81628600  0.27813100  1.0
  C  C43  1  0.69160100  0.18415900  0.28035600  1.0
  C  C44  1  0.30716100  0.81592400  0.27719900  1.0
  C  C45  1  0.52143800  0.19288500  0.21858300  1.0
  C  C46  1  0.48296600  0.80735100  0.21459000  1.0
  C  C47  1  0.67222800  0.19269500  0.21972100  1.0
  C  C48  1  0.32514800  0.80724500  0.21373400  1.0
  C  C49  1  0.39661600  0.90614900  0.86651700  1.0
  C  C50  1  0.51128500  0.90653700  0.86912400  1.0
  C  C51  1  0.50995800  0.90642400  0.13384100  1.0
  C  C52  1  0.59920500  0.09300200  0.14311000  1.0
  C  C53  1  0.49287500  0.09314800  0.13941700  1.0
  C  C54  1  0.49373700  0.09290900  0.85687300  1.0
  C  C55  1  0.39537700  0.90646200  0.13094800  1.0
  C  C56  1  0.60022700  0.09319400  0.86066600  1.0
  C  C57  1  0.83622300  0.35302200  0.83487800  1.0
  C  C58  1  0.16304300  0.64187700  0.82400900  1.0
  C  C59  1  0.83599300  0.48271400  0.83282000  1.0
  C  C60  1  0.16325300  0.52113800  0.82629100  1.0
  C  C61  1  0.87495400  0.36365900  0.82077700  1.0
  C  C62  1  0.12433400  0.63108900  0.80908100  1.0
  C  C63  1  0.87491200  0.51022100  0.81868100  1.0
  C  C64  1  0.12468100  0.49268900  0.81196900  1.0
  C  C65  1  0.88387400  0.34553900  0.75840700  1.0
  C  C66  1  0.11569900  0.65092600  0.75007100  1.0
  C  C67  1  0.88428400  0.53754100  0.75668700  1.0
  C  C68  1  0.11629300  0.46445800  0.75255600  1.0
  C  C69  1  0.85459800  0.31763700  0.71025200  1.0
  C  C70  1  0.14528600  0.68061500  0.70574500  1.0
  C  C71  1  0.85529300  0.53703500  0.70895400  1.0
  C  C72  1  0.14599300  0.46506400  0.70733000  1.0
  C  C73  1  0.81567900  0.30707900  0.72329900  1.0
  C  C74  1  0.18417400  0.69120600  0.71933300  1.0
  C  C75  1  0.81618600  0.50925600  0.72203000  1.0
  C  C76  1  0.18473800  0.49387100  0.72035900  1.0
  C  C77  1  0.80700600  0.32498300  0.78695400  1.0
  C  C78  1  0.19259000  0.67166900  0.77979500  1.0
  C  C79  1  0.80705500  0.48239200  0.78529400  1.0
  C  C80  1  0.19290800  0.52163800  0.78109000  1.0
  C  C81  1  0.16366200  0.64230100  0.17303900  1.0
  C  C82  1  0.83664000  0.35317300  0.16797800  1.0
  C  C83  1  0.16359800  0.52175700  0.17469100  1.0
  C  C84  1  0.83668600  0.48354100  0.16684300  1.0
  C  C85  1  0.12499700  0.63189400  0.18711000  1.0
  C  C86  1  0.87549900  0.36445200  0.18251300  1.0
  C  C87  1  0.12500000  0.49340500  0.18912300  1.0
  C  C88  1  0.87551500  0.51135300  0.18093500  1.0
  C  C89  1  0.11633700  0.65152200  0.24655500  1.0
  C  C90  1  0.88467800  0.34633500  0.24447200  1.0
  C  C91  1  0.11659300  0.46480700  0.24769500  1.0
  C  C92  1  0.88469500  0.53845200  0.24331900  1.0
  C  C93  1  0.14585300  0.68069700  0.29198100  1.0
  C  C94  1  0.85553400  0.31789100  0.29199700  1.0
  C  C95  1  0.14630400  0.46505400  0.29221300  1.0
  C  C96  1  0.85556800  0.53748000  0.29134500  1.0
  C  C97  1  0.18470600  0.69100000  0.27905700  1.0
  C  C98  1  0.81649500  0.30679500  0.27868200  1.0
  C  C99  1  0.18505800  0.49385900  0.27933200  1.0
  C  C100  1  0.81653500  0.50949100  0.27810700  1.0
  C  C101  1  0.19314900  0.67158400  0.21839700  1.0
  C  C102  1  0.80756700  0.32461100  0.21525600  1.0
  C  C103  1  0.19326200  0.52187900  0.21917200  1.0
  C  C104  1  0.80762200  0.48277900  0.21463100  1.0
  C  C105  1  0.90604200  0.50933200  0.86704800  1.0
  C  C106  1  0.90628400  0.39503200  0.86990800  1.0
  C  C107  1  0.90665400  0.39653500  0.13441300  1.0
  C  C108  1  0.09331200  0.49392900  0.14236100  1.0
  C  C109  1  0.09346100  0.60031300  0.13874000  1.0
  C  C110  1  0.09280600  0.59883300  0.85612000  1.0
  C  C111  1  0.90666700  0.51104500  0.13159700  1.0
  C  C112  1  0.09305700  0.49260300  0.86019700  1.0
  C  C113  1  0.51671600  0.35299000  0.16506900  1.0
  C  C114  1  0.47919800  0.64212200  0.17578300  1.0
  C  C115  1  0.64657400  0.48261800  0.16681200  1.0
  C  C116  1  0.35776100  0.52101900  0.17380100  1.0
  C  C117  1  0.48862300  0.36362500  0.17920000  1.0
  C  C118  1  0.50695900  0.63114200  0.19087200  1.0
  C  C119  1  0.63515600  0.51010900  0.18102900  1.0
  C  C120  1  0.36786800  0.49255500  0.18806300  1.0
  C  C121  1  0.46163000  0.34555200  0.24167500  1.0
  C  C122  1  0.53540200  0.65086100  0.25000400  1.0
  C  C123  1  0.65308600  0.53740700  0.24306700  1.0
  C  C124  1  0.34800000  0.46429500  0.24743000  1.0
  C  C125  1  0.46304200  0.31768700  0.28988900  1.0
  C  C126  1  0.53559200  0.68058300  0.29436500  1.0
  C  C127  1  0.68156000  0.53688400  0.29079000  1.0
  C  C128  1  0.31892000  0.46490900  0.29270800  1.0
  C  C129  1  0.49138600  0.30711300  0.27677700  1.0
  C  C130  1  0.50744900  0.69136300  0.28062100  1.0
  C  C131  1  0.69289500  0.50911900  0.27765900  1.0
  C  C132  1  0.30900800  0.49373900  0.27974100  1.0
  C  C133  1  0.51793100  0.32498700  0.21305200  1.0
  C  C134  1  0.47956000  0.67197300  0.21997900  1.0
  C  C135  1  0.67518700  0.48229200  0.21432300  1.0
  C  C136  1  0.32861200  0.52151700  0.21902400  1.0
  C  C137  1  0.47862200  0.64235100  0.82703300  1.0
  C  C138  1  0.51640100  0.35312200  0.83190600  1.0
  C  C139  1  0.35809800  0.52179600  0.82552400  1.0
  C  C140  1  0.64683200  0.48360400  0.83302900  1.0
  C  C141  1  0.50684400  0.63190000  0.81290500  1.0
  C  C142  1  0.48881800  0.36439000  0.81732700  1.0
  C  C143  1  0.36833900  0.49345200  0.81099400  1.0
  C  C144  1  0.63575400  0.51136500  0.81890900  1.0
  C  C145  1  0.53511900  0.65150700  0.75340000  1.0
  C  C146  1  0.46151100  0.34623400  0.75539600  1.0
  C  C147  1  0.34817000  0.46489900  0.75233600  1.0
  C  C148  1  0.65364300  0.53846200  0.75650700  1.0
  C  C149  1  0.53478200  0.68068700  0.70797500  1.0
  C  C150  1  0.46220400  0.31776000  0.70795800  1.0
  C  C151  1  0.31873100  0.46518700  0.70781800  1.0
  C  C152  1  0.68180500  0.53752000  0.70845300  1.0
  C  C153  1  0.50626400  0.69102900  0.72095000  1.0
  C  C154  1  0.49015000  0.30667300  0.72133300  1.0
  C  C155  1  0.30879600  0.49399500  0.72076100  1.0
  C  C156  1  0.69287700  0.50955500  0.72166600  1.0
  C  C157  1  0.47842900  0.67164500  0.78168500  1.0
  C  C158  1  0.51691500  0.32454300  0.78470300  1.0
  C  C159  1  0.32858400  0.52196500  0.78102100  1.0
  C  C160  1  0.67513100  0.48286200  0.78519700  1.0
  C  C161  1  0.60315900  0.50923400  0.13265400  1.0
  C  C162  1  0.48862500  0.39495200  0.12997500  1.0
  C  C163  1  0.48975400  0.39647800  0.86541100  1.0
  C  C164  1  0.40053400  0.49393700  0.85773400  1.0
  C  C165  1  0.50677100  0.60029900  0.86127300  1.0
  C  C166  1  0.50607000  0.59878900  0.14391900  1.0
  C  C167  1  0.60426800  0.51101600  0.86822000  1.0
  C  C168  1  0.39944000  0.49251600  0.13985700  1.0
  C  C169  1  0.49413800  0.21619300  0.32678800  1.0
  C  C170  1  0.49416900  0.21594400  0.41277400  1.0
  C  C171  1  0.49759500  0.18727100  0.45809200  1.0
  C  C172  1  0.49415300  0.24682800  0.28582700  1.0
  C  C173  1  0.49298800  0.24649100  0.45585900  1.0
  C  C174  1  0.27818200  0.49472400  0.32748400  1.0
  C  C175  1  0.27855900  0.49483800  0.41351200  1.0
  C  C176  1  0.31039800  0.49769000  0.45898300  1.0
  C  C177  1  0.24781000  0.49532500  0.28654800  1.0
  C  C178  1  0.24725000  0.49448700  0.45666300  1.0
  C  C179  1  0.78489800  0.27650700  0.32784200  1.0
  C  C180  1  0.78509900  0.27722000  0.41395600  1.0
  C  C181  1  0.81429100  0.30888900  0.45950500  1.0
  C  C182  1  0.75366100  0.24618700  0.28727600  1.0
  C  C183  1  0.75371800  0.24637000  0.45730200  1.0
  C  C184  1  0.50836700  0.78470800  0.32740500  1.0
  C  C185  1  0.50782300  0.78496400  0.41352300  1.0
  C  C186  1  0.50534300  0.81419300  0.45888700  1.0
  C  C187  1  0.50751600  0.75345800  0.28703300  1.0
  C  C188  1  0.50732800  0.75364400  0.45708200  1.0
  C  C189  1  0.72343500  0.50830100  0.32690300  1.0
  C  C190  1  0.72285500  0.50803600  0.41298300  1.0
  C  C191  1  0.69093500  0.50508400  0.45826400  1.0
  C  C192  1  0.75405300  0.50798000  0.28648200  1.0
  C  C193  1  0.75417100  0.50843300  0.45642500  1.0
  C  C194  1  0.21628200  0.72211500  0.32678900  1.0
  C  C195  1  0.21604400  0.72175000  0.41277600  1.0
  C  C196  1  0.18738600  0.68959600  0.45797500  1.0
  C  C197  1  0.24687100  0.75284600  0.28596800  1.0
  C  C198  1  0.24659500  0.75343900  0.45598900  1.0
  C  C199  1  0.78481000  0.50843500  0.67282200  1.0
  C  C200  1  0.78508600  0.50811800  0.58674500  1.0
  C  C201  1  0.81404500  0.50514800  0.54148900  1.0
  C  C202  1  0.75387400  0.50810600  0.71325800  1.0
  C  C203  1  0.75413800  0.50845600  0.54330500  1.0
  C  C204  1  0.27671500  0.78443700  0.67243900  1.0
  C  C205  1  0.27738900  0.78478400  0.58632400  1.0
  C  C206  1  0.30906000  0.81403900  0.54091000  1.0
  C  C207  1  0.24635400  0.75316500  0.71285300  1.0
  C  C208  1  0.24648000  0.75352600  0.54281600  1.0
  C  C209  1  0.49148100  0.27638100  0.67220300  1.0
  C  C210  1  0.49205600  0.27714100  0.58608800  1.0
  C  C211  1  0.49456900  0.30883700  0.54059300  1.0
  C  C212  1  0.49236800  0.24603500  0.71273000  1.0
  C  C213  1  0.49258100  0.24630300  0.54269000  1.0
  C  C214  1  0.21653900  0.49484500  0.67261200  1.0
  C  C215  1  0.21624800  0.49491500  0.58658500  1.0
  C  C216  1  0.18724400  0.49772600  0.54109300  1.0
  C  C217  1  0.24752700  0.49547500  0.71354600  1.0
  C  C218  1  0.24718800  0.49453000  0.54343100  1.0
  C  C219  1  0.72196700  0.21621900  0.67315200  1.0
  C  C220  1  0.72171700  0.21598500  0.58716500  1.0
  C  C221  1  0.68961800  0.18733800  0.54179900  1.0
  C  C222  1  0.75259100  0.24682600  0.71416500  1.0
  C  C223  1  0.75347700  0.24652700  0.54413100  1.0
  C  C224  1  0.50582500  0.72214500  0.67317300  1.0
  C  C225  1  0.50575000  0.72178500  0.58717600  1.0
  C  C226  1  0.50221200  0.68960900  0.54199500  1.0
  C  C227  1  0.50597200  0.75288900  0.71394900  1.0
  C  C228  1  0.50699400  0.75351100  0.54391100  1.0
  C  C229  1  0.50726000  0.78430500  0.67338800  1.0
  C  C230  1  0.50725000  0.78474600  0.58729000  1.0
  C  C231  1  0.50511000  0.81411100  0.54170500  1.0
  C  C232  1  0.72333900  0.50849900  0.67260100  1.0
  C  C233  1  0.72281600  0.50814000  0.58651900  1.0
  C  C234  1  0.69092500  0.50515400  0.54105400  1.0
  C  C235  1  0.21581200  0.72243500  0.67192500  1.0
  C  C236  1  0.21579600  0.72192600  0.58592300  1.0
  C  C237  1  0.18726900  0.68967800  0.54068700  1.0
  C  C238  1  0.49276900  0.21557500  0.67192900  1.0
  C  C239  1  0.49343900  0.21561000  0.58593100  1.0
  C  C240  1  0.49727000  0.18712600  0.54080800  1.0
  C  C241  1  0.27795100  0.49487900  0.67290600  1.0
  C  C242  1  0.27844600  0.49492700  0.58688500  1.0
  C  C243  1  0.31034600  0.49774000  0.54173100  1.0
  C  C244  1  0.78403600  0.27701800  0.67384500  1.0
  C  C245  1  0.78461900  0.27751100  0.58773800  1.0
  C  C246  1  0.81405500  0.30903400  0.54231800  1.0
  C  C247  1  0.21678900  0.49473700  0.32718000  1.0
  C  C248  1  0.21636900  0.49484400  0.41319900  1.0
  C  C249  1  0.18730700  0.49770000  0.45834300  1.0
  C  C250  1  0.72279900  0.21570900  0.32802700  1.0
  C  C251  1  0.72216000  0.21570600  0.41402200  1.0
  C  C252  1  0.68982400  0.18721600  0.45908600  1.0
  C  C253  1  0.50711000  0.72263000  0.32800900  1.0
  C  C254  1  0.50641900  0.72204300  0.41400500  1.0
  C  C255  1  0.50252500  0.68973100  0.45927700  1.0
  C  C256  1  0.78500500  0.50842700  0.32714400  1.0
  C  C257  1  0.78517900  0.50811700  0.41321900  1.0
  C  C258  1  0.81409800  0.50516200  0.45870300  1.0
  C  C259  1  0.27704700  0.78423900  0.32646700  1.0
  C  C260  1  0.27757000  0.78466200  0.41256500  1.0
  C  C261  1  0.30913800  0.81399000  0.45809400  1.0
  C  C262  1  0.49294600  0.27703100  0.32619600  1.0
  C  C263  1  0.49286100  0.27750300  0.41230600  1.0
  C  C264  1  0.49496200  0.30901500  0.45778000  1.0
  O  O1  1  0.52132400  0.96953000  0.00263800  1.0
  O  O2  1  0.48200000  0.89588000  0.08382700  1.0
  O  O3  1  0.41220700  0.89609900  0.07909800  1.0
  O  O4  1  0.48418300  0.89615100  0.92120600  1.0
  O  O5  1  0.53763100  0.94145100  0.85488300  1.0
  O  O6  1  0.53365800  0.00077600  0.76080000  1.0
  O  O7  1  0.58954900  0.05825100  0.84126300  1.0
  O  O8  1  0.46915900  0.05793700  0.83807500  1.0
  O  O9  1  0.58621900  0.10354900  0.91871900  1.0
  O  O10  1  0.51907300  0.10328300  0.91293900  1.0
  O  O11  1  0.58415600  0.10333200  0.08715400  1.0
  O  O12  1  0.51723000  0.10350700  0.08134400  1.0
  O  O13  1  0.46862900  0.05820100  0.15884600  1.0
  O  O14  1  0.58886800  0.05804900  0.16195400  1.0
  O  O15  1  0.51394600  0.03000200  0.08886700  1.0
  O  O16  1  0.57148900  0.03987000  0.00333600  1.0
  O  O17  1  0.59872100  0.00078500  0.92645300  1.0
  O  O18  1  0.59831800  0.99868100  0.08046800  1.0
  O  O19  1  0.40033200  0.99841800  0.91959200  1.0
  O  O20  1  0.51605800  0.02997900  0.91126100  1.0
  O  O21  1  0.48107400  0.95941800  0.87537400  1.0
  O  O22  1  0.40500700  0.94107700  0.85333800  1.0
  O  O23  1  0.46893000  0.99859100  0.76232800  1.0
  O  O24  1  0.41411600  0.89569000  0.91649900  1.0
  O  O25  1  0.52974900  0.99875300  0.23784000  1.0
  O  O26  1  0.46713100  0.00075800  0.23929700  1.0
  O  O27  1  0.47849300  0.95945600  0.12481600  1.0
  O  O28  1  0.53639100  0.94139000  0.14710000  1.0
  O  O29  1  0.40390600  0.94136400  0.14515500  1.0
  O  O30  1  0.40204600  0.00062900  0.07357000  1.0
  O  O31  1  0.46833400  0.03976500  0.99675100  1.0
  O  O32  1  0.44830100  0.96944500  0.99755300  1.0
  O  O33  1  0.96954200  0.44808200  0.00285400  1.0
  O  O34  1  0.89608900  0.41394200  0.08443700  1.0
  O  O35  1  0.89618200  0.48381200  0.07980400  1.0
  O  O36  1  0.89597900  0.41183900  0.92192500  1.0
  O  O37  1  0.94117400  0.40354000  0.85555800  1.0
  O  O38  1  0.00047600  0.46671800  0.76086400  1.0
  O  O39  1  0.05811000  0.46828900  0.84086800  1.0
  O  O40  1  0.05783400  0.58849600  0.83743300  1.0
  O  O41  1  0.10340400  0.51702000  0.91814800  1.0
  O  O42  1  0.10318000  0.58388400  0.91222100  1.0
  O  O43  1  0.10346900  0.51920200  0.08623600  1.0
  O  O44  1  0.10379100  0.58632200  0.08062100  1.0
  O  O45  1  0.05851600  0.58959300  0.15826200  1.0
  O  O46  1  0.05842200  0.46923000  0.16144900  1.0
  O  O47  1  0.03018900  0.51601400  0.08859100  1.0
  O  O48  1  0.03987400  0.46821900  0.00307400  1.0
  O  O49  1  0.00063600  0.40180700  0.92658700  1.0
  O  O50  1  0.99879900  0.40030000  0.08061000  1.0
  O  O51  1  0.99841800  0.59791300  0.91947100  1.0
  O  O52  1  0.02988200  0.51366500  0.91094500  1.0
  O  O53  1  0.95925000  0.47809900  0.87560200  1.0
  O  O54  1  0.94098800  0.53580600  0.85372500  1.0
  O  O55  1  0.99831400  0.52928000  0.76224400  1.0
  O  O56  1  0.89555700  0.48145400  0.91722300  1.0
  O  O57  1  0.99925300  0.46916200  0.23781200  1.0
  O  O58  1  0.00124300  0.53376200  0.23925100  1.0
  O  O59  1  0.95971500  0.48099700  0.12507300  1.0
  O  O60  1  0.94162200  0.40505300  0.14761100  1.0
  O  O61  1  0.94161400  0.53741100  0.14551500  1.0
  O  O62  1  0.00076700  0.59850400  0.07347000  1.0
  O  O63  1  0.03983800  0.57129400  0.99634100  1.0
  O  O64  1  0.96950800  0.52104400  0.99767700  1.0
  O  O65  1  0.47841000  0.44800700  0.99703000  1.0
  O  O66  1  0.51774000  0.41388500  0.91536700  1.0
  O  O67  1  0.58752200  0.48376900  0.91998600  1.0
  O  O68  1  0.51569800  0.41172100  0.07785700  1.0
  O  O69  1  0.46224900  0.40346400  0.14436200  1.0
  O  O70  1  0.46616900  0.46662200  0.23904200  1.0
  O  O71  1  0.41007400  0.46819900  0.15914900  1.0
  O  O72  1  0.53063900  0.58836700  0.16260800  1.0
  O  O73  1  0.41354400  0.51697400  0.08197600  1.0
  O  O74  1  0.48070000  0.58385200  0.08790600  1.0
  O  O75  1  0.41566000  0.51918900  0.91388700  1.0
  O  O76  1  0.48246200  0.58631500  0.91942400  1.0
  O  O77  1  0.53097000  0.58955400  0.84169400  1.0
  O  O78  1  0.41069700  0.46922700  0.83859800  1.0
  O  O79  1  0.48571000  0.51596700  0.91137200  1.0
  O  O80  1  0.42824300  0.46816900  0.99692700  1.0
  O  O81  1  0.40105100  0.40173200  0.07334200  1.0
  O  O82  1  0.40137300  0.40025600  0.91932300  1.0
  O  O83  1  0.59940900  0.59783900  0.08036200  1.0
  O  O84  1  0.48369400  0.51358600  0.08903300  1.0
  O  O85  1  0.51874300  0.47799300  0.12424000  1.0
  O  O86  1  0.59471200  0.53572300  0.14596200  1.0
  O  O87  1  0.53092900  0.52912600  0.23763700  1.0
  O  O88  1  0.58575600  0.48135300  0.08250500  1.0
  O  O89  1  0.46973500  0.46910900  0.76209700  1.0
  O  O90  1  0.53235000  0.53370500  0.76064300  1.0
  O  O91  1  0.52113700  0.48092400  0.87475100  1.0
  O  O92  1  0.46330100  0.40499200  0.85226900  1.0
  O  O93  1  0.59566500  0.53736500  0.85429400  1.0
  O  O94  1  0.59761400  0.59844600  0.92637800  1.0
  O  O95  1  0.53136000  0.57122500  0.00361400  1.0
  O  O96  1  0.55141000  0.52095400  0.00214500  1.0
  Ru  Ru1  1  0.2966279883449388  0.21702992083914766  0.45457517459669916  1.0
  N  N2  1  0.29815710024651865  0.21700522659198385  0.32344072505646704  1.0
  N  N3  1  0.2423772211892565  0.21705898769098478  0.4506344722295632  1.0
  N  N4  1  0.2950343003551918  0.2170256659886397  0.5860127550882495  1.0
  N  N5  1  0.35090380567296675  0.21700085987501883  0.45833399839304423  1.0
  N  N6  1  0.26535918468063846  0.1543474200961657  0.45487830554801734  1.0
  N  N7  1  0.32798263743895517  0.27968345874647194  0.4549995579285446  1.0
  H  H8  1  0.2595399414264586  0.14181854084437484  0.3983140700320504  1.0
  H  H9  1  0.23872285244609912  0.14207626447372976  0.48264510068876  1.0
  H  H10  1  0.2794791191894059  0.14227878255298887  0.48440326020640523  1.0
  H  H11  1  0.37333792349700257  0.24006641583870553  0.4291121746859745  1.0
  H  H12  1  0.34976604291735686  0.19312680753754197  0.43184035324783787  1.0
  H  H13  1  0.3612959948638864  0.21772248344239134  0.5157470005727021  1.0
  H  H14  1  0.31829817382469816  0.240436691731492  0.6124457740431922  1.0
  H  H15  1  0.2944570867475503  0.19341035192890918  0.6125064002334558  1.0
  H  H16  1  0.27132610158567244  0.2172274657674902  0.6099601002423833  1.0
  H  H17  1  0.24331057522574231  0.24087516734652065  0.4769462388039787  1.0
  H  H18  1  0.21972419962521067  0.19390662957337956  0.4793712864145239  1.0
  H  H19  1  0.23218941180134628  0.21639524858096976  0.3930395914791145  1.0
  H  H20  1  0.298709244404405  0.2406205426142838  0.29688645372099703  1.0
  H  H21  1  0.2748007226910913  0.19370995798843005  0.2970077061015243  1.0
  H  H22  1  0.3217717473441561  0.21671661288379837  0.29937212752180586  1.0
  H  H23  1  0.3161276788945206  0.2918078238832109  0.4919209077990954  1.0
  H  H24  1  0.33009786569634264  0.2922449099990884  0.39934471526653204  1.0
  H  H25  1  0.3561834523417781  0.29186626571028446  0.4745211911934335  1.0
  H  H1  1  0.172337481464704  0.12167957956730843  0.31240675842848636  1.0
  H  H2  1  0.20403300964916968  0.14217071476068768  0.2468698467535021  1.0
  O  O3  1  0.197701869394957  0.14468661127600588  0.30313095131815093  1.0